544
Bi	0.625	0.625	0.35275
Bi	0.625	0.625	2.85275
Bi	0.625	0.625	5.35275
Bi	0.625	0.625	7.85275
Bi	0.625	3.125	0.35275
Bi	0.625	3.125	2.85275
Bi	0.625	3.125	5.35275
Bi	0.625	3.125	7.85275
Bi	0.625	5.625	0.35275
Bi	0.625	5.625	2.85275
Bi	0.625	5.625	5.35275
Bi	0.625	5.625	7.85275
Bi	0.625	8.125	0.35275
Bi	0.625	8.125	2.85275
Bi	0.625	8.125	5.35275
Bi	0.625	8.125	7.85275
Bi	3.125	0.625	0.35275
Bi	3.125	0.625	2.85275
Bi	3.125	0.625	5.35275
Bi	3.125	0.625	7.85275
Bi	3.125	3.125	0.35275
Bi	3.125	3.125	2.85275
Bi	3.125	3.125	5.35275
Bi	3.125	3.125	7.85275
Bi	3.125	5.625	0.35275
Bi	3.125	5.625	2.85275
Bi	3.125	5.625	5.35275
Bi	3.125	5.625	7.85275
Bi	3.125	8.125	0.35275
Bi	3.125	8.125	2.85275
Bi	3.125	8.125	5.35275
Bi	3.125	8.125	7.85275
Bi	5.625	0.625	0.35275
Bi	5.625	0.625	2.85275
Bi	5.625	0.625	5.35275
Bi	5.625	0.625	7.85275
Bi	5.625	3.125	0.35275
Bi	5.625	3.125	2.85275
Bi	5.625	3.125	5.35275
Bi	5.625	3.125	7.85275
Bi	5.625	5.625	0.35275
Bi	5.625	5.625	2.85275
Bi	5.625	5.625	5.35275
Bi	5.625	5.625	7.85275
Bi	5.625	8.125	0.35275
Bi	5.625	8.125	2.85275
Bi	5.625	8.125	5.35275
Bi	5.625	8.125	7.85275
Bi	8.125	0.625	0.35275
Bi	8.125	0.625	2.85275
Bi	8.125	0.625	5.35275
Bi	8.125	0.625	7.85275
Bi	8.125	3.125	0.35275
Bi	8.125	3.125	2.85275
Bi	8.125	3.125	5.35275
Bi	8.125	3.125	7.85275
Bi	8.125	5.625	0.35275
Bi	8.125	5.625	2.85275
Bi	8.125	5.625	5.35275
Bi	8.125	5.625	7.85275
Bi	8.125	8.125	0.35275
Bi	8.125	8.125	2.85275
Bi	8.125	8.125	5.35275
Bi	8.125	8.125	7.85275
Bi	1.875	1.875	2.14725
Bi	1.875	1.875	4.64725
Bi	1.875	1.875	7.14725
Bi	1.875	1.875	9.64725
Bi	1.875	4.375	2.14725
Bi	1.875	4.375	4.64725
Bi	1.875	4.375	7.14725
Bi	1.875	4.375	9.64725
Bi	1.875	6.875	2.14725
Bi	1.875	6.875	4.64725
Bi	1.875	6.875	7.14725
Bi	1.875	6.875	9.64725
Bi	1.875	9.375	2.14725
Bi	1.875	9.375	4.64725
Bi	1.875	9.375	7.14725
Bi	1.875	9.375	9.64725
Bi	4.375	1.875	2.14725
Bi	4.375	1.875	4.64725
Bi	4.375	1.875	7.14725
Bi	4.375	1.875	9.64725
Bi	4.375	4.375	2.14725
Bi	4.375	4.375	4.64725
Bi	4.375	4.375	7.14725
Bi	4.375	4.375	9.64725
Bi	4.375	6.875	2.14725
Bi	4.375	6.875	4.64725
Bi	4.375	6.875	7.14725
Bi	4.375	6.875	9.64725
Bi	4.375	9.375	2.14725
Bi	4.375	9.375	4.64725
Bi	4.375	9.375	7.14725
Bi	4.375	9.375	9.64725
Bi	6.875	1.875	2.14725
Bi	6.875	1.875	4.64725
Bi	6.875	1.875	7.14725
Bi	6.875	1.875	9.64725
Bi	6.875	4.375	2.14725
Bi	6.875	4.375	4.64725
Bi	6.875	4.375	7.14725
Bi	6.875	4.375	9.64725
Bi	6.875	6.875	2.14725
Bi	6.875	6.875	4.64725
Bi	6.875	6.875	7.14725
Bi	6.875	6.875	9.64725
Bi	6.875	9.375	2.14725
Bi	6.875	9.375	4.64725
Bi	6.875	9.375	7.14725
Bi	6.875	9.375	9.64725
Bi	9.375	1.875	2.14725
Bi	9.375	1.875	4.64725
Bi	9.375	1.875	7.14725
Bi	9.375	1.875	9.64725
Bi	9.375	4.375	2.14725
Bi	9.375	4.375	4.64725
Bi	9.375	4.375	7.14725
Bi	9.375	4.375	9.64725
Bi	9.375	6.875	2.14725
Bi	9.375	6.875	4.64725
Bi	9.375	6.875	7.14725
Bi	9.375	6.875	9.64725
Bi	9.375	9.375	2.14725
Bi	9.375	9.375	4.64725
Bi	9.375	9.375	7.14725
Bi	9.375	9.375	9.64725
Cu	1.875	0.625	1.25
Cu	1.875	0.625	3.75
Cu	1.875	0.625	6.25
Cu	1.875	0.625	8.75
Cu	1.875	3.125	1.25
Cu	1.875	3.125	3.75
Cu	1.875	3.125	6.25
Cu	1.875	3.125	8.75
Cu	1.875	5.625	1.25
Cu	1.875	5.625	3.75
Cu	1.875	5.625	6.25
Cu	1.875	5.625	8.75
Cu	1.875	8.125	1.25
Cu	1.875	8.125	3.75
Cu	1.875	8.125	6.25
Cu	1.875	8.125	8.75
Cu	4.375	0.625	1.25
Cu	4.375	0.625	3.75
Cu	4.375	0.625	6.25
Cu	4.375	0.625	8.75
Cu	4.375	3.125	1.25
Cu	4.375	3.125	3.75
Cu	4.375	3.125	6.25
Cu	4.375	3.125	8.75
Cu	4.375	5.625	1.25
Cu	4.375	5.625	3.75
Cu	4.375	5.625	6.25
Cu	4.375	5.625	8.75
Cu	4.375	8.125	1.25
Cu	4.375	8.125	3.75
Cu	4.375	8.125	6.25
Cu	4.375	8.125	8.75
Cu	6.875	0.625	1.25
Cu	6.875	0.625	3.75
Cu	6.875	0.625	6.25
Cu	6.875	0.625	8.75
Cu	6.875	3.125	1.25
Cu	6.875	3.125	3.75
Cu	6.875	3.125	6.25
Cu	6.875	3.125	8.75
Cu	6.875	5.625	1.25
Cu	6.875	5.625	3.75
Cu	6.875	5.625	6.25
Cu	6.875	5.625	8.75
Cu	6.875	8.125	1.25
Cu	6.875	8.125	3.75
Cu	6.875	8.125	6.25
Cu	6.875	8.125	8.75
Cu	9.375	0.625	1.25
Cu	9.375	0.625	3.75
Cu	9.375	0.625	6.25
Cu	9.375	0.625	8.75
Cu	9.375	3.125	1.25
Cu	9.375	3.125	3.75
Cu	9.375	3.125	6.25
Cu	9.375	3.125	8.75
Cu	9.375	5.625	1.25
Cu	9.375	5.625	3.75
Cu	9.375	5.625	6.25
Cu	9.375	5.625	8.75
Cu	9.375	8.125	1.25
Cu	9.375	8.125	3.75
Cu	9.375	8.125	6.25
Cu	9.375	8.125	8.75
Cu	0.625	1.875	1.25
Cu	0.625	1.875	3.75
Cu	0.625	1.875	6.25
Cu	0.625	1.875	8.75
Cu	0.625	4.375	1.25
Cu	0.625	4.375	3.75
Cu	0.625	4.375	6.25
Cu	0.625	4.375	8.75
Cu	0.625	6.875	1.25
Cu	0.625	6.875	3.75
Cu	0.625	6.875	6.25
Cu	0.625	6.875	8.75
Cu	0.625	9.375	1.25
Cu	0.625	9.375	3.75
Cu	0.625	9.375	6.25
Cu	0.625	9.375	8.75
Cu	3.125	1.875	1.25
Cu	3.125	1.875	3.75
Cu	3.125	1.875	6.25
Cu	3.125	1.875	8.75
Cu	3.125	4.375	1.25
Cu	3.125	4.375	3.75
Cu	3.125	4.375	6.25
Cu	3.125	4.375	8.75
Cu	3.125	6.875	1.25
Cu	3.125	6.875	3.75
Cu	3.125	6.875	6.25
Cu	3.125	6.875	8.75
Cu	3.125	9.375	1.25
Cu	3.125	9.375	3.75
Cu	3.125	9.375	6.25
Cu	3.125	9.375	8.75
Cu	5.625	1.875	1.25
Cu	5.625	1.875	3.75
Cu	5.625	1.875	6.25
Cu	5.625	1.875	8.75
Cu	5.625	4.375	1.25
Cu	5.625	4.375	3.75
Cu	5.625	4.375	6.25
Cu	5.625	4.375	8.75
Cu	5.625	6.875	1.25
Cu	5.625	6.875	3.75
Cu	5.625	6.875	6.25
Cu	5.625	6.875	8.75
Cu	5.625	9.375	1.25
Cu	5.625	9.375	3.75
Cu	5.625	9.375	6.25
Cu	5.625	9.375	8.75
Cu	8.125	1.875	1.25
Cu	8.125	1.875	3.75
Cu	8.125	1.875	6.25
Cu	8.125	1.875	8.75
Cu	8.125	4.375	1.25
Cu	8.125	4.375	3.75
Cu	8.125	4.375	6.25
Cu	8.125	4.375	8.75
Cu	8.125	6.875	1.25
Cu	8.125	6.875	3.75
Cu	8.125	6.875	6.25
Cu	8.125	6.875	8.75
Cu	8.125	9.375	1.25
Cu	8.125	9.375	3.75
Cu	8.125	9.375	6.25
Cu	8.125	9.375	8.75
O	1.875	0.625	0
O	1.875	0.625	10
O	1.875	0.625	2.5
O	1.875	0.625	5
O	1.875	0.625	7.5
O	1.875	3.125	0
O	1.875	3.125	10
O	1.875	3.125	2.5
O	1.875	3.125	5
O	1.875	3.125	7.5
O	1.875	5.625	0
O	1.875	5.625	10
O	1.875	5.625	2.5
O	1.875	5.625	5
O	1.875	5.625	7.5
O	1.875	8.125	0
O	1.875	8.125	10
O	1.875	8.125	2.5
O	1.875	8.125	5
O	1.875	8.125	7.5
O	4.375	0.625	0
O	4.375	0.625	10
O	4.375	0.625	2.5
O	4.375	0.625	5
O	4.375	0.625	7.5
O	4.375	3.125	0
O	4.375	3.125	10
O	4.375	3.125	2.5
O	4.375	3.125	5
O	4.375	3.125	7.5
O	4.375	5.625	0
O	4.375	5.625	10
O	4.375	5.625	2.5
O	4.375	5.625	5
O	4.375	5.625	7.5
O	4.375	8.125	0
O	4.375	8.125	10
O	4.375	8.125	2.5
O	4.375	8.125	5
O	4.375	8.125	7.5
O	6.875	0.625	0
O	6.875	0.625	10
O	6.875	0.625	2.5
O	6.875	0.625	5
O	6.875	0.625	7.5
O	6.875	3.125	0
O	6.875	3.125	10
O	6.875	3.125	2.5
O	6.875	3.125	5
O	6.875	3.125	7.5
O	6.875	5.625	0
O	6.875	5.625	10
O	6.875	5.625	2.5
O	6.875	5.625	5
O	6.875	5.625	7.5
O	6.875	8.125	0
O	6.875	8.125	10
O	6.875	8.125	2.5
O	6.875	8.125	5
O	6.875	8.125	7.5
O	9.375	0.625	0
O	9.375	0.625	10
O	9.375	0.625	2.5
O	9.375	0.625	5
O	9.375	0.625	7.5
O	9.375	3.125	0
O	9.375	3.125	10
O	9.375	3.125	2.5
O	9.375	3.125	5
O	9.375	3.125	7.5
O	9.375	5.625	0
O	9.375	5.625	10
O	9.375	5.625	2.5
O	9.375	5.625	5
O	9.375	5.625	7.5
O	9.375	8.125	0
O	9.375	8.125	10
O	9.375	8.125	2.5
O	9.375	8.125	5
O	9.375	8.125	7.5
O	0.625	1.875	0
O	0.625	1.875	10
O	0.625	1.875	2.5
O	0.625	1.875	5
O	0.625	1.875	7.5
O	0.625	4.375	0
O	0.625	4.375	10
O	0.625	4.375	2.5
O	0.625	4.375	5
O	0.625	4.375	7.5
O	0.625	6.875	0
O	0.625	6.875	10
O	0.625	6.875	2.5
O	0.625	6.875	5
O	0.625	6.875	7.5
O	0.625	9.375	0
O	0.625	9.375	10
O	0.625	9.375	2.5
O	0.625	9.375	5
O	0.625	9.375	7.5
O	3.125	1.875	0
O	3.125	1.875	10
O	3.125	1.875	2.5
O	3.125	1.875	5
O	3.125	1.875	7.5
O	3.125	4.375	0
O	3.125	4.375	10
O	3.125	4.375	2.5
O	3.125	4.375	5
O	3.125	4.375	7.5
O	3.125	6.875	0
O	3.125	6.875	10
O	3.125	6.875	2.5
O	3.125	6.875	5
O	3.125	6.875	7.5
O	3.125	9.375	0
O	3.125	9.375	10
O	3.125	9.375	2.5
O	3.125	9.375	5
O	3.125	9.375	7.5
O	5.625	1.875	0
O	5.625	1.875	10
O	5.625	1.875	2.5
O	5.625	1.875	5
O	5.625	1.875	7.5
O	5.625	4.375	0
O	5.625	4.375	10
O	5.625	4.375	2.5
O	5.625	4.375	5
O	5.625	4.375	7.5
O	5.625	6.875	0
O	5.625	6.875	10
O	5.625	6.875	2.5
O	5.625	6.875	5
O	5.625	6.875	7.5
O	5.625	9.375	0
O	5.625	9.375	10
O	5.625	9.375	2.5
O	5.625	9.375	5
O	5.625	9.375	7.5
O	8.125	1.875	0
O	8.125	1.875	10
O	8.125	1.875	2.5
O	8.125	1.875	5
O	8.125	1.875	7.5
O	8.125	4.375	0
O	8.125	4.375	10
O	8.125	4.375	2.5
O	8.125	4.375	5
O	8.125	4.375	7.5
O	8.125	6.875	0
O	8.125	6.875	10
O	8.125	6.875	2.5
O	8.125	6.875	5
O	8.125	6.875	7.5
O	8.125	9.375	0
O	8.125	9.375	10
O	8.125	9.375	2.5
O	8.125	9.375	5
O	8.125	9.375	7.5
Se	0.625	0.625	1.7
Se	0.625	0.625	4.2
Se	0.625	0.625	6.7
Se	0.625	0.625	9.2
Se	0.625	3.125	1.7
Se	0.625	3.125	4.2
Se	0.625	3.125	6.7
Se	0.625	3.125	9.2
Se	0.625	5.625	1.7
Se	0.625	5.625	4.2
Se	0.625	5.625	6.7
Se	0.625	5.625	9.2
Se	0.625	8.125	1.7
Se	0.625	8.125	4.2
Se	0.625	8.125	6.7
Se	0.625	8.125	9.2
Se	3.125	0.625	1.7
Se	3.125	0.625	4.2
Se	3.125	0.625	6.7
Se	3.125	0.625	9.2
Se	3.125	3.125	1.7
Se	3.125	3.125	4.2
Se	3.125	3.125	6.7
Se	3.125	3.125	9.2
Se	3.125	5.625	1.7
Se	3.125	5.625	4.2
Se	3.125	5.625	6.7
Se	3.125	5.625	9.2
Se	3.125	8.125	1.7
Se	3.125	8.125	4.2
Se	3.125	8.125	6.7
Se	3.125	8.125	9.2
Se	5.625	0.625	1.7
Se	5.625	0.625	4.2
Se	5.625	0.625	6.7
Se	5.625	0.625	9.2
Se	5.625	3.125	1.7
Se	5.625	3.125	4.2
Se	5.625	3.125	6.7
Se	5.625	3.125	9.2
Se	5.625	5.625	1.7
Se	5.625	5.625	4.2
Se	5.625	5.625	6.7
Se	5.625	5.625	9.2
Se	5.625	8.125	1.7
Se	5.625	8.125	4.2
Se	5.625	8.125	6.7
Se	5.625	8.125	9.2
Se	8.125	0.625	1.7
Se	8.125	0.625	4.2
Se	8.125	0.625	6.7
Se	8.125	0.625	9.2
Se	8.125	3.125	1.7
Se	8.125	3.125	4.2
Se	8.125	3.125	6.7
Se	8.125	3.125	9.2
Se	8.125	5.625	1.7
Se	8.125	5.625	4.2
Se	8.125	5.625	6.7
Se	8.125	5.625	9.2
Se	8.125	8.125	1.7
Se	8.125	8.125	4.2
Se	8.125	8.125	6.7
Se	8.125	8.125	9.2
Se	1.875	1.875	0.8
Se	1.875	1.875	3.3
Se	1.875	1.875	5.8
Se	1.875	1.875	8.3
Se	1.875	4.375	0.8
Se	1.875	4.375	3.3
Se	1.875	4.375	5.8
Se	1.875	4.375	8.3
Se	1.875	6.875	0.8
Se	1.875	6.875	3.3
Se	1.875	6.875	5.8
Se	1.875	6.875	8.3
Se	1.875	9.375	0.8
Se	1.875	9.375	3.3
Se	1.875	9.375	5.8
Se	1.875	9.375	8.3
Se	4.375	1.875	0.8
Se	4.375	1.875	3.3
Se	4.375	1.875	5.8
Se	4.375	1.875	8.3
Se	4.375	4.375	0.8
Se	4.375	4.375	3.3
Se	4.375	4.375	5.8
Se	4.375	4.375	8.3
Se	4.375	6.875	0.8
Se	4.375	6.875	3.3
Se	4.375	6.875	5.8
Se	4.375	6.875	8.3
Se	4.375	9.375	0.8
Se	4.375	9.375	3.3
Se	4.375	9.375	5.8
Se	4.375	9.375	8.3
Se	6.875	1.875	0.8
Se	6.875	1.875	3.3
Se	6.875	1.875	5.8
Se	6.875	1.875	8.3
Se	6.875	4.375	0.8
Se	6.875	4.375	3.3
Se	6.875	4.375	5.8
Se	6.875	4.375	8.3
Se	6.875	6.875	0.8
Se	6.875	6.875	3.3
Se	6.875	6.875	5.8
Se	6.875	6.875	8.3
Se	6.875	9.375	0.8
Se	6.875	9.375	3.3
Se	6.875	9.375	5.8
Se	6.875	9.375	8.3
Se	9.375	1.875	0.8
Se	9.375	1.875	3.3
Se	9.375	1.875	5.8
Se	9.375	1.875	8.3
Se	9.375	4.375	0.8
Se	9.375	4.375	3.3
Se	9.375	4.375	5.8
Se	9.375	4.375	8.3
Se	9.375	6.875	0.8
Se	9.375	6.875	3.3
Se	9.375	6.875	5.8
Se	9.375	6.875	8.3
Se	9.375	9.375	0.8
Se	9.375	9.375	3.3
Se	9.375	9.375	5.8
Se	9.375	9.375	8.3